103
UNNAMED
N          0.00000        0.00000        0.00000
H         -0.33000       -0.80000        0.50000
H         -0.33000        0.83000        0.45000
H         -0.33000       -0.03000       -0.94000
C          1.46000        0.00000        0.00000
H          1.75000       -0.82000       -0.49000
C          2.01000        1.21000       -0.75000
H          3.01000        1.18000       -0.73000
H          1.69000        1.19000       -1.69000
H          1.69000        2.05000       -0.30000
C          1.93000        0.00000        1.46000
O          1.16000        0.00000        2.42000
N          3.24000       -0.00000        1.74000
H          3.91000       -0.00000        1.00000
C          3.69000        0.00000        3.13000
H          3.32000        0.82000        3.55000
C          3.15000       -1.21000        3.88000
H          3.48000       -1.18000        4.83000
H          2.15000       -1.19000        3.87000
H          3.47000       -2.05000        3.45000
C          5.23000        0.00000        3.13000
O          5.90000       -0.00000        2.10000
N          5.90000        0.00000        4.29000
H          5.40000        0.00000        5.15000
C          7.35000        0.00000        4.29000
H          7.64000       -0.82000        3.80000
C          7.91000        1.21000        3.54000
H          8.91000        1.18000        3.56000
H          7.59000        1.19000        2.59000
H          7.59000        2.05000        3.98000
C          7.83000        0.00000        5.75000
O          7.06000        0.00000        6.71000
N          9.14000        0.00000        6.03000
H          9.81000       -0.00000        5.29000
C          9.59000        0.00000        7.41000
H          9.21000        0.82000        7.84000
C          9.05000       -1.21000        8.17000
H          9.37000       -1.18000        9.12000
H          8.05000       -1.19000        8.16000
H          9.37000       -2.05000        7.73000
C         11.12000        0.00000        7.41000
O         11.80000       -0.00000        6.39000
N         11.79000        0.00000        8.57000
H         11.30000        0.00000        9.44000
C         13.26000        0.00000        8.57000
H         13.57000       -0.82000        8.09000
C         13.82000        1.23000        7.83000
H         13.79000        2.01000        8.45000
H         13.24000        1.41000        7.03000
C         15.24000        1.04000        7.35000
C         15.50000        0.24000        6.23000
H         14.74000       -0.20000        5.74000
C         16.81000        0.04000        5.80000
H         16.99000       -0.53000        4.99000
C         17.87000        0.64000        6.48000
H         18.81000        0.50000        6.17000
C         17.62000        1.44000        7.59000
H         18.38000        1.87000        8.08000
C         16.31000        1.64000        8.03000
H         16.13000        2.22000        8.82000
C         13.70000        0.00000       10.05000
O         12.90000        0.00000       10.99000
N         15.00000        0.00000       10.36000
H         15.69000       -0.00000        9.63000
C         15.42000        0.00000       11.75000
H         15.03000        0.82000       12.17000
C         14.86000       -1.21000       12.50000
H         15.16000       -1.18000       13.45000
H         13.86000       -1.19000       12.46000
H         15.19000       -2.05000       12.07000
C         16.96000        0.00000       11.79000
O         17.65000       -0.00000       10.78000
N         17.60000        0.00000       12.96000
H         17.08000        0.00000       13.82000
C         19.05000        0.00000       13.00000
H         19.35000       -0.82000       12.52000
C         19.62000        1.21000       12.26000
H         20.62000        1.18000       12.30000
H         19.33000        1.19000       11.31000
H         19.30000        2.05000       12.70000
C         19.49000        0.00000       14.47000
O         18.70000        0.00000       15.41000
N         20.80000        0.00000       14.78000
H         21.48000        0.00000       14.05000
C         21.21000        0.00000       16.17000
H         20.83000        0.83000       16.59000
C         20.66000       -1.21000       16.92000
H         20.96000       -1.18000       17.87000
H         19.66000       -1.19000       16.89000
H         20.99000       -2.05000       16.49000
C         22.75000        0.00000       16.21000
O         23.45000       -0.00000       15.20000
N         23.39000        0.00000       17.39000
H         22.87000        0.00000       18.24000
C         24.85000        0.00000       17.42000
H         25.15000       -0.82000       16.94000
C         25.42000        1.21000       16.69000
H         26.42000        1.18000       16.73000
H         25.12000        1.19000       15.73000
H         25.09000        2.05000       17.12000
C         25.29000        0.00000       18.89000
O         26.62000        0.00000       19.13000
O         24.50000        0.00000       19.84000
