22
S  C  A  M  O  R  G
H          2.00000        1.00000       -0.00000
C          2.00000        2.09000        0.00000
H          1.49000        2.45000        0.89000
H          1.49000        2.45000       -0.89000
C          3.43000        2.64000       -0.00000
O          4.39000        1.88000       -0.00000
N          3.56000        3.97000       -0.00000
H          2.73000        4.56000       -0.00000
C          4.85000        4.61000       -0.00000
H          5.41000        4.32000        0.89000
C          5.66000        4.22000       -1.23000
H          5.12000        4.52000       -2.13000
H          6.63000        4.72000       -1.21000
H          5.81000        3.14000       -1.24000
C          4.71000        6.13000        0.00000
O          3.60000        6.65000        0.00000
N          5.85000        6.83000        0.00000
H          6.74000        6.36000       -0.00000
C          5.85000        8.28000        0.00000
H          4.82000        8.65000        0.00000
H          6.36000        8.65000        0.89000
H          6.36000        8.65000       -0.89000
